         MACRO
&NAME    MACPCPRO
         LG    13,0(1)       Point at heap provided by caller
         MEND